[General]
network = MobileNetwork

# simulation parameters
sim-time-limit = 3600s
record-eventlog = true

# nodes
**.numNodes = 50

# wireless parameters
**.wirelessIfc.wirelessRange = 20m

# mobility parameters
**.mobilityType = "RandomWaypointMobility"
**.mobility.constraintAreaMinX = 0m
**.mobility.constraintAreaMinY = 0m
**.mobility.constraintAreaMinZ = 0m
**.mobility.constraintAreaMaxX = 200m
**.mobility.constraintAreaMaxY = 200m
**.mobility.constraintAreaMaxZ = 0m
**.mobility.speed = 1.4mps
**.mobility.waitTime = 60s
